# Packages
 &PACKAGES
 useCAL         = .TRUE.,
 useEXF         = .TRUE.,
 useDiagnostics = .TRUE.,
# useDiagnostics_vec = .TRUE.,
 useKPP         = .TRUE.,
 useOBCS        = .TRUE.,
 useSALT_PLUME  = .TRUE.,
 useSeaice      = .TRUE.,
 &