# Packages
 &PACKAGES
 useCAL         = .TRUE.,
 useKPP         = .TRUE.,
 useEXF         = .TRUE.,
 useDiagnostics = .TRUE.,
 useMNC = .TRUE.,
 useDiagnostics_vec = .TRUE.,
 useSALT_PLUME  = .TRUE.,
 useObcs=.TRUE.,
 useSeaice=.TRUE.,
 &
