# Packages
 &PACKAGES
 useCAL         = .TRUE.,
 useKPP         = .TRUE.,
 useMNC = .TRUE.,
 useSALT_PLUME  = .TRUE.,
 &
